Version 4
SHEET 1 1292 2048
WIRE 1056 224 944 224
WIRE 1232 224 1120 224
WIRE -416 304 -464 304
WIRE -160 304 -336 304
WIRE 944 352 944 224
WIRE 976 352 944 352
WIRE 1232 352 1232 224
WIRE 1232 352 1200 352
WIRE -608 368 -704 368
WIRE -704 384 -704 368
WIRE 976 416 944 416
WIRE -608 448 -608 368
WIRE -544 448 -544 416
WIRE -544 448 -608 448
WIRE -464 448 -464 304
WIRE -464 448 -544 448
WIRE -432 448 -464 448
WIRE -416 448 -432 448
WIRE -160 464 -160 304
WIRE -160 464 -352 464
WIRE -128 464 -160 464
WIRE -704 480 -704 448
WIRE -656 480 -656 448
WIRE -656 480 -704 480
WIRE -416 480 -480 480
WIRE 976 480 944 480
WIRE 1232 480 1200 480
WIRE -160 496 -160 464
WIRE -656 512 -656 480
WIRE 976 544 944 544
WIRE 1232 544 1200 544
WIRE -656 624 -656 592
WIRE -480 624 -480 480
WIRE -384 720 -384 688
WIRE -240 720 -240 688
WIRE -384 832 -384 800
WIRE -240 832 -240 800
FLAG -480 480 V+
FLAG -432 448 V-
FLAG -480 624 0
FLAG -128 464 Vo
FLAG -656 624 0
FLAG -384 688 Vcc
FLAG -384 832 0
FLAG -240 832 0
FLAG -240 688 Vss
FLAG 944 416 V-
FLAG 944 480 V+
FLAG 944 544 0
FLAG 1232 544 Vo
FLAG 1232 480 Vcc
FLAG -544 336 0
FLAG -160 576 0
SYMBOL voltage -656 496 R0
WINDOW 123 0 0 Left 2
WINDOW 39 0 0 Left 2
SYMATTR InstName V1
SYMATTR Value SINE(2.75 0.25 1)
SYMBOL voltage -384 704 R0
SYMATTR InstName V2
SYMATTR Value 3.3
SYMBOL voltage -240 704 R0
SYMATTR InstName V3
SYMATTR Value -3.3
SYMBOL cap -720 384 R0
SYMATTR InstName C1
SYMATTR Value 0.3µ
SYMBOL Misc\\DIP8 1088 448 R0
WINDOW 3 0 -116 Center 2
SYMATTR Value LM386
SYMATTR InstName U2
SYMBOL cap 1120 208 R90
WINDOW 0 0 32 VBottom 2
WINDOW 3 32 32 VTop 2
SYMATTR InstName C2
SYMATTR Value 1µ
SYMBOL res -560 320 R0
SYMATTR InstName R1
SYMATTR Value 1Meg
SYMBOL res -176 480 R0
SYMATTR InstName R2
SYMATTR Value 1k
TEXT 304 72 Left 2 !* CONNECTIONS: Gain 1\n*              |   Non-Inverting Input\n*              |   |   Inverting Input\n*              |   |   |   Gnd\n*              |   |   |   |   Vout\n*              |   |   |   |   |   Vs\n*              |   |   |   |   |   |   Bypass\n*              |   |   |   |   |   |   |   Gain 8\n*              |   |   |   |   |   |   |   |\n*              1   2   3   4   5   6   7   8\n.SUBCKT LM386  g1 inn inp gnd out vs  byp  g8\n \n* input emitter-follower buffers:\n \nq1 gnd inn 10011 ddpnp\nr1 inn gnd 50k\nq2 gnd inp 10012 ddpnp\nr2 inp gnd 50k\n \n* differential input stage, gain-setting\n* resistors, and internal feedback resistor:\n \nq3 10013 10011 10008 ddpnp\nq4 10014 10012 g1 ddpnp\nr3 vs byp 15k\nr4 byp 10008 15k\nr5 10008 g8 150\nr6 g8 g1 1.35k\nr7 g1 out 15k\n \n* input stage current mirror:\n \nq5 10013 10013 gnd ddnpn\nq6 10014 10013 gnd ddnpn\n \n* voltage gain stage & rolloff cap:\n \nq7 10017 10014 gnd ddnpn\nc1 10014 10017 15pf\n \n* current mirror source for gain stage:\n \ni1 10002 vs dc 5m\nq8 10004 10002 vs ddpnp\nq9 10002 10002 vs ddpnp\n \n* Sziklai-connected push-pull output stage:\n \nq10 10018 10017 out ddpnp\nq11 10004 10004 10009 ddnpn 100\nq12 10009 10009 10017 ddnpn 100\nq13 vs 10004 out ddnpn 100\nq14 out 10018 gnd ddnpn 100\n \n* generic transistor models generated\n* with MicroSim's PARTs utility, using\n* default parameters except Bf:\n \n.MODEL ddnpn NPN(Is=10f Xti=3 Eg=1.11 Vaf=100\n+ Bf=400 Ise=0 Ne=1.5 Ikf=0 Nk=.5 Xtb=1.5 Var=100\n+ Br=1 Isc=0 Nc=2 Ikr=0 Rc=0 Cjc=2p Mjc=.3333\n+ Vjc=.75 Fc=.5 Cje=5p Mje=.3333 Vje=.75 Tr=10n\n+ Tf=1n Itf=1 Xtf=0 Vtf=10)\n \n.MODEL ddpnp PNP(Is=10f Xti=3 Eg=1.11 Vaf=100\n+ Bf=200 Ise=0 Ne=1.5 Ikf=0 Nk=.5 Xtb=1.5 Var=100\n+ Br=1 Isc=0 Nc=2 Ikr=0 Rc=0 Cjc=2p Mjc=.3333\n+ Vjc=.75 Fc=.5 Cje=5p Mje=.3333 Vje=.75 Tr=10n\n+ Tf=1n Itf=1 Xtf=0 Vtf=10)\n \n.ENDS
TEXT -64 128 Left 2 !.tran 5
